Slack Bus analysis 2 modified/Slack Bus analysis 2 modified/14 BUS system/ieee 14 bus two slack bus with load.txt
                                PTI INTERACTIVE POWER SYSTEM SIMULATOR--PSS(R)E Xplore TUE, MAR 08 2016   2:50
                         08/19/93 UW ARCHIVE           100.0  1962 W IEEE 14 BUS TES     %MVA FOR TRANSFORMERS
                                                                                         %MVA FOR NON-TRANSFORMER BRANCHES

X------- FROM BUS ------X AREA  VOLT            GEN    LOAD    SHUNT  X---------- TO BUS ----------X                        TRANSFORMER     RATING
  BUS# X-- NAME --X BASKV ZONE  PU/KV  ANGLE  MW/MVAR MW/MVAR MW/MVAR   BUS# X-- NAME --X BASKV AREA CKT    MW     MVAR    RATIO   ANGLE   %  SET A

     1 BUS 1       138.00    1 1.0600    0.0    54.2      0.0     0.0 -----------------------------------------------------------------------------
                             1 146.28           28.5H     0.0     0.0      2 BUS 2       138.00    1  1      7.9    21.3
                                                                           5 BUS 5       138.00    1  1     46.2     7.2
     2 BUS 2       138.00    1 1.0450    0.0   213.7     21.7     0.0 -----------------------------------------------------------------------------
                             1 144.21          -16.9R    12.7     0.0      1 BUS 1       138.00    1  1     -7.8   -26.8
                                                                           3 BUS 3       138.00    1  1     78.1     3.1
                                                                           4 BUS 4       138.00    1  1     66.4    -3.7
                                                                           5 BUS 5       138.00    1  1     55.3    -2.2
     3 BUS 3       138.00    1 1.0100   -8.3     0.0     94.2     0.0 -----------------------------------------------------------------------------
                             1 139.38           25.0R    19.0     0.0      2 BUS 2       138.00    1  1    -75.5     3.4
                                                                           4 BUS 4       138.00    1  1    -18.7     2.6
     4 BUS 4       138.00    1 1.0174   -6.4     0.0     47.8     0.0 -----------------------------------------------------------------------------
                             1 140.40            0.0     -3.9     0.0      2 BUS 2       138.00    1  1    -64.0     7.2
                                                                           3 BUS 3       138.00    1  1     19.0    -3.3
                                                                           5 BUS 5       138.00    1  1    -47.8    10.4
                                                                           7 BUS 7       138.00    1  1     28.6    -9.8  0.978LK
                                                                           9 BUS 9       138.00    1  1     16.4    -0.5  0.969LK
     5 BUS 5       138.00    1 1.0196   -5.2     0.0      7.6     0.0 -----------------------------------------------------------------------------
                             1 140.71            0.0      1.6     0.0      1 BUS 1       138.00    1  1    -45.2    -8.1
                                                                           2 BUS 2       138.00    1  1    -53.7     3.4
                                                                           4 BUS 4       138.00    1  1     48.1    -9.4
                                                                           6 BUS 6       138.00    1  1     43.2    12.4  0.932LK
     6 BUS 6       138.00    1 1.0700  -10.5     0.0     11.2     0.0 -----------------------------------------------------------------------------
                             1 147.66           12.9R     7.5     0.0      5 BUS 5       138.00    1  1    -43.2    -8.2  1.000UN
                                                                          11 BUS 11      138.00    1  1      6.8     3.7
                                                                          12 BUS 12      138.00    1  1      7.7     2.5
                                                                          13 BUS 13      138.00    1  1     17.5     7.3
     7 BUS 7       138.00    1 1.0615   -9.5     0.0      0.0     0.0 -----------------------------------------------------------------------------
                             1 146.49            0.0      0.0     0.0      4 BUS 4       138.00    1  1    -28.6    11.6  1.000UN
                                                                           8 BUS 8       138.00    1  1     -0.0   -17.2
                                                                           9 BUS 9       138.00    1  1     28.6     5.6
     8 BUS 8       138.00    1 1.0900   -9.5     0.0      0.0     0.0 -----------------------------------------------------------------------------
                             1 150.42           17.6R     0.0     0.0      7 BUS 7       138.00    1  1      0.0    17.6

     9 BUS 9       138.00    1 1.0562  -11.1     0.0     29.5     0.0 -----------------------------------------------------------------------------
                             1 145.75            0.0     16.6   -21.2      4 BUS 4       138.00    1  1    -16.4     1.8  1.000UN
                                                                           7 BUS 7       138.00    1  1    -28.6    -4.8
                                                                          10 BUS 10      138.00    1  1      5.8     4.0
                                                                          14 BUS 14      138.00    1  1      9.8     3.5
    10 BUS 10      138.00    1 1.0512  -11.3     0.0      9.0     0.0 -----------------------------------------------------------------------------
                             1 145.07            0.0      5.8     0.0      9 BUS 9       138.00    1  1     -5.7    -4.0
                                                                          11 BUS 11      138.00    1  1     -3.3    -1.8
    11 BUS 11      138.00    1 1.0570  -11.0     0.0      3.5     0.0 -----------------------------------------------------------------------------
                             1 145.87            0.0      1.8     0.0      6 BUS 6       138.00    1  1     -6.8    -3.6
                                                                          10 BUS 10      138.00    1  1      3.3     1.8
    12 BUS 12      138.00    1 1.0552  -11.4     0.0      6.1     0.0 -----------------------------------------------------------------------------
                             1 145.62            0.0      1.6     0.0      6 BUS 6       138.00    1  1     -7.6    -2.4
                                                                          13 BUS 13      138.00    1  1      1.5     0.8
    13 BUS 13      138.00    1 1.0504  -11.4     0.0     13.5     0.0 -----------------------------------------------------------------------------
                             1 144.96            0.0      5.8     0.0      6 BUS 6       138.00    1  1    -17.3    -6.9
                                                                          12 BUS 12      138.00    1  1     -1.5    -0.8
                                                                          14 BUS 14      138.00    1  1      5.3     1.9                                PTI INTERACTIVE POWER SYSTEM SIMULATOR--PSS(R)E Xplore TUE, MAR 08 2016   2:50
                         08/19/93 UW ARCHIVE           100.0  1962 W IEEE 14 BUS TES     %MVA FOR TRANSFORMERS
                                                                                         %MVA FOR NON-TRANSFORMER BRANCHES

X------- FROM BUS ------X AREA  VOLT            GEN    LOAD    SHUNT  X---------- TO BUS ----------X                        TRANSFORMER     RATING
  BUS# X-- NAME --X BASKV ZONE  PU/KV  ANGLE  MW/MVAR MW/MVAR MW/MVAR   BUS# X-- NAME --X BASKV AREA CKT    MW     MVAR    RATIO   ANGLE   %  SET A

    14 BUS 14      138.00    1 1.0357  -12.2     0.0     14.9     0.0 -----------------------------------------------------------------------------
                             1 142.93            0.0      5.0     0.0      9 BUS 9       138.00    1  1     -9.6    -3.2
                                                                          13 BUS 13      138.00    1  1     -5.3    -1.8
